@<TRIPOS>MOLECULE
AX1940
    78    84     1     0     0
SMALL
NO_CHARGES
****
Generated from the CSD

@<TRIPOS>ATOM
     1 C1       4.8244   5.1791  26.9496   C.3       1 RES1   0.0000
     2 C2       5.6818   6.2713  26.7493   C.2       1 RES1   0.0000
     3 H2       5.8147   6.6069  25.8705   H         1 RES1   0.0000
     4 C3       6.3347   6.8668  27.8113   C.2       1 RES1   0.0000
     5 H3       6.9298   7.5900  27.6531   H         1 RES1   0.0000
     6 C4       6.1277   6.4152  29.1097   C.2       1 RES1   0.0000
     7 H4       6.5913   6.8143  29.8367   H         1 RES1   0.0000
     8 C5       5.2401   5.3809  29.3295   C.2       1 RES1   0.0000
     9 H5       5.0612   5.0935  30.2171   H         1 RES1   0.0000
    10 C6       4.6062   4.7576  28.2598   C.2       1 RES1   0.0000
    11 H6       4.0157   4.0323  28.4251   H         1 RES1   0.0000
    12 C7       5.3527   3.4731  24.6369   C.3       1 RES1   0.0000
    13 C8       4.6668   2.5517  23.6303   C.3       1 RES1   0.0000
    14 H8A      4.0500   3.0749  23.0763   H         1 RES1   0.0000
    15 H8B      4.1668   1.8586  24.1098   H         1 RES1   0.0000
    16 H8C      5.3423   2.1312  23.0586   H         1 RES1   0.0000
    17 C9       6.2776   2.6817  25.5713   C.3       1 RES1   0.0000
    18 H9A      5.7663   1.9717  26.0130   H         1 RES1   0.0000
    19 H9B      6.6523   3.2835  26.2477   H         1 RES1   0.0000
    20 H9C      7.0059   2.2829  25.0499   H         1 RES1   0.0000
    21 C10      6.2117   4.4974  23.8677   C.3       1 RES1   0.0000
    22 H10A     6.8009   4.0251  23.2425   H         1 RES1   0.0000
    23 H10B     6.7539   5.0109  24.5023   H         1 RES1   0.0000
    24 H10C     5.6272   5.1054  23.3698   H         1 RES1   0.0000
    25 C11      1.3717   3.7667  25.6762   C.3       1 RES1   0.0000
    26 H11      0.7861   3.0713  26.0926   H         1 RES1   0.0000
    27 C12      0.9846   5.0984  26.3033   C.3       1 RES1   0.0000
    28 H12A     1.1360   5.0603  27.2708   H         1 RES1   0.0000
    29 H12B     0.0371   5.2787  26.1280   H         1 RES1   0.0000
    30 H12C     1.5303   5.8136  25.9150   H         1 RES1   0.0000
    31 C13      1.1448   3.6873  24.1723   C.2       1 RES1   0.0000
    32 C14      0.8461   2.4485  23.6028   C.2       1 RES1   0.0000
    33 H14      0.8259   1.6732  24.1514   H         1 RES1   0.0000
    34 C15      0.5793   2.3344  22.2468   C.2       1 RES1   0.0000
    35 H15      0.3815   1.4829  21.8751   H         1 RES1   0.0000
    36 C16      0.6001   3.4468  21.4349   C.2       1 RES1   0.0000
    37 H16      0.3864   3.3708  20.5124   H         1 RES1   0.0000
    38 C17      0.9353   4.6808  21.9747   C.2       1 RES1   0.0000
    39 H17      0.9799   5.4484  21.4162   H         1 RES1   0.0000
    40 C18      1.2072   4.7937  23.3356   C.2       1 RES1   0.0000
    41 H18      1.4388   5.6410  23.6974   H         1 RES1   0.0000
    42 C19      2.1165  -0.2750  26.7394   C.2       1 RES1   0.0000
    43 C20      2.9262  -1.2810  26.1845   C.2       1 RES1   0.0000
    44 H20      3.4467  -1.1038  25.4098   H         1 RES1   0.0000
    45 C21      2.9582  -2.5118  26.7670   C.2       1 RES1   0.0000
    46 H21      3.4777  -3.2048  26.3761   H         1 RES1   0.0000
    47 C22      2.2247  -2.7658  27.9503   C.2       1 RES1   0.0000
    48 C23      2.3408  -4.0098  28.6244   C.2       1 RES1   0.0000
    49 H23      2.8948  -4.6891  28.2587   H         1 RES1   0.0000
    50 C24      1.6705  -4.2458  29.7857   C.2       1 RES1   0.0000
    51 H24      1.7597  -5.0841  30.2238   H         1 RES1   0.0000
    52 C25      0.8461  -3.2464  30.3370   C.2       1 RES1   0.0000
    53 H25      0.3738  -3.4178  31.1431   H         1 RES1   0.0000
    54 C26      0.7196  -2.0293  29.7220   C.2       1 RES1   0.0000
    55 H26      0.1718  -1.3607  30.1165   H         1 RES1   0.0000
    56 C27      1.3916  -1.7517  28.5062   C.2       1 RES1   0.0000
    57 C28      1.3146  -0.4727  27.8438   C.2       1 RES1   0.0000
    58 C29      0.4815   0.6435  28.3539   C.2       1 RES1   0.0000
    59 C30     -0.9249   0.4937  28.6133   C.2       1 RES1   0.0000
    60 C31     -1.6436  -0.6710  28.2434   C.2       1 RES1   0.0000
    61 H31     -1.1919  -1.3709  27.7873   H         1 RES1   0.0000
    62 C32     -2.9729  -0.8068  28.5281   C.2       1 RES1   0.0000
    63 H32     -3.4304  -1.6006  28.2751   H         1 RES1   0.0000
    64 C33     -3.6666   0.2159  29.1921   C.2       1 RES1   0.0000
    65 H33     -4.5848   0.1034  29.4104   H         1 RES1   0.0000
    66 C34     -3.0214   1.3710  29.5236   C.2       1 RES1   0.0000
    67 H34     -3.5046   2.0683  29.9524   H         1 RES1   0.0000
    68 C35     -1.6428   1.5524  29.2394   C.2       1 RES1   0.0000
    69 C36     -0.9716   2.7553  29.5390   C.2       1 RES1   0.0000
    70 H36     -1.4371   3.4537  29.9839   H         1 RES1   0.0000
    71 C37      0.3412   2.9297  29.1976   C.2       1 RES1   0.0000
    72 H37      0.7703   3.7600  29.3665   H         1 RES1   0.0000
    73 C38      1.0539   1.8773  28.5959   C.2       1 RES1   0.0000
    74 N1       2.7920   3.4086  26.0343   N.3       1 RES1   0.0000
    75 O1       2.1300   0.9805  26.1306   O.3       1 RES1   0.0000
    76 O2       2.3945   2.1083  28.3502   O.3       1 RES1   0.0000
    77 P1       3.9981   4.5115  25.4456   P.3       1 RES1   0.0000
    78 P2       3.1853   2.0250  26.8812   P.3       1 RES1   0.0000
@<TRIPOS>BOND
     1     1     2    1
     2     1    10    1
     3     1    77    1
     4     2     3    1
     5     2     4   un
     6     4     5    1
     7     4     6   un
     8     6     7    1
     9     6     8   un
    10     8     9    1
    11     8    10   un
    12    10    11    1
    13    12    13    1
    14    12    17    1
    15    12    21    1
    16    12    77    1
    17    13    14    1
    18    13    15    1
    19    13    16    1
    20    17    18    1
    21    17    19    1
    22    17    20    1
    23    21    22    1
    24    21    23    1
    25    21    24    1
    26    25    26    1
    27    25    27    1
    28    25    31    1
    29    25    74    1
    30    27    28    1
    31    27    29    1
    32    27    30    1
    33    31    32   un
    34    31    40   un
    35    32    33    1
    36    32    34   un
    37    34    35    1
    38    34    36   un
    39    36    37    1
    40    36    38   un
    41    38    39    1
    42    38    40   un
    43    40    41    1
    44    42    43   un
    45    42    57   un
    46    42    75    1
    47    43    44    1
    48    43    45   un
    49    45    46    1
    50    45    47   un
    51    47    48   un
    52    47    56   un
    53    48    49    1
    54    48    50   un
    55    50    51    1
    56    50    52   un
    57    52    53    1
    58    52    54   un
    59    54    55    1
    60    54    56   un
    61    56    57   un
    62    57    58   un
    63    58    59   un
    64    58    73   un
    65    59    60   un
    66    59    68   un
    67    60    61    1
    68    60    62   un
    69    62    63    1
    70    62    64   un
    71    64    65    1
    72    64    66   un
    73    66    67    1
    74    66    68   un
    75    68    69   un
    76    69    70    1
    77    69    71   un
    78    71    72    1
    79    71    73   un
    80    73    76    1
    81    74    77    1
    82    74    78    1
    83    75    78    1
    84    76    78    1
@<TRIPOS>SUBSTRUCTURE
     1 RES1        1 GROUP             0 ****  ****    0  
@<TRIPOS>CRYSIN
    8.6599   11.6092   30.9520   90.0000   90.0000   90.0000    19     1
