@<TRIPOS>MOLECULE
RhBiphtBu
    26    28     2     0     0
SMALL
NO_CHARGES
****
Generated from the CSD

@<TRIPOS>ATOM
     1 Rh1      1.5572  10.1853   6.5782   Rh        1 RES1   0.0000
     2 C1       2.3225  12.2906   6.8035   C.3       1 RES1   0.0000
     3 H1       3.0973  12.3810   7.4287   H         1 RES1   0.0000
     4 C2       1.1182  13.1089   7.1896   C.3       1 RES1   0.0000
     5 H2A      1.3310  14.0660   7.0530   H         1 RES1   0.0000
     6 H2AB     0.9446  12.9771   8.1555   H         1 RES1   0.0000
     7 C3      -0.1619  12.7821   6.4182   C.3       1 RES1   0.0000
     8 H3A     -0.9407  13.0887   6.9459   H         1 RES1   0.0000
     9 H3AB    -0.1585  13.2854   5.5657   H         1 RES1   0.0000
    10 C4      -0.3296  11.3020   6.1116   C.3       1 RES1   0.0000
    11 H4      -1.1541  10.8939   6.5039   H         1 RES1   0.0000
    12 C5       0.1145  10.6833   4.9675   C.3       1 RES1   0.0000
    13 H5      -0.4527   9.9094   4.6855   H         1 RES1   0.0000
    14 C6       0.8827  11.3161   3.8281   C.3       1 RES1   0.0000
    15 H6A      0.2421  11.7726   3.2270   H         1 RES1   0.0000
    16 H6AB     1.3260  10.6007   3.3070   H         1 RES1   0.0000
    17 C7       1.9428  12.3270   4.2785   C.3       1 RES1   0.0000
    18 H7A      2.6051  12.4441   3.5519   H         1 RES1   0.0000
    19 H7AB     1.5072  13.2024   4.4343   H         1 RES1   0.0000
    20 C8       2.6642  11.9039   5.5386   C.3       1 RES1   0.0000
    21 H8       3.6422  11.7411   5.4133   H         1 RES1   0.0000
    22 F1       2.0643  12.1005   1.1173   F         2 RES2   0.0000
    23 F2       0.4796  13.2285  -0.0632   F         2 RES2   0.0000
    24 F3       1.7845  11.7132  -1.0713   F         2 RES2   0.0000
    25 F4       2.6692  13.6851  -0.3786   F         2 RES2   0.0000
    26 B1       1.7309  12.6753  -0.0805   B         2 RES2   0.0000
@<TRIPOS>BOND
     1     1     2    1
     2     1    10    1
     3     1    12    1
     4     1    20    1
     5     2     3    1
     6     2     4    1
     7     2    20    1
     8     4     5    1
     9     4     6    1
    10     4     7    1
    11     7     8    1
    12     7     9    1
    13     7    10    1
    14    10    11    1
    15    10    12    1
    16    12    13    1
    17    12    14    1
    18    14    15    1
    19    14    16    1
    20    14    17    1
    21    17    18    1
    22    17    19    1
    23    17    20    1
    24    20    21    1
    25    22    26    1
    26    23    26    1
    27    24    26    1
    28    25    26    1
@<TRIPOS>SUBSTRUCTURE
     1 RES1        1 GROUP             0 ****  ****    0  
     2 RES2       22 GROUP             0 ****  ****    0  
@<TRIPOS>CRYSIN
   10.3601   16.6890   10.6015   90.0000  115.3290   90.0000     4     1
